<?xml version="1.0" encoding="UTF-8"?>

<!-- generated on 2024-10-04 10:17:15 by Eclipse SUMO netedit Version 1.11.0
-->

<routes xmlns:xsi="http://www.w3.org/2001/XMLSchema-instance" xsi:noNamespaceSchemaLocation="http://sumo.dlr.de/xsd/routes_file.xsd">
    <route edges="4259995#2 4342543#0 4342543#1 4342543#2 4342543#3 4342543#4 -152118007#1 61498133#0 61498133#1 222469599#0 222469599#1 -152118015#0 -745900256 -55708960#1 -745899263#0 4764990#1 746789750" color="yellow" id="route_0"/>
    <route edges="948026960#0 948026960#1 948026960#2 948026960#3 948026960#4 948026960#6 948026960#7 948026960#8 948026960#10 948026960#11 948026960#12 948026960#13 152118013#1 55708960#1 745900256 152118015#0 745900257#0 745900257#2 745900257#3 745900257#4 745900257#5 152118010#0 152118010#1 152118008#1 152118008#2 150916460 745741557 4351537#0 -4351542" color="yellow" id="route_1"/>
    <route edges="228997788#1 152117988#1 -4259987 4259957 152117993#0 152117993#1 152117993#2 61836656#1 61836656#2 152117977 -55708960#1 -745899263#0 -948026960#13 -948026960#12 -948026960#11 -948026960#10 -948026960#8 -948026960#7 -948026960#6 -948026960#5 -948026960#3 -948026960#2 -948026960#1 -948026960#0" color="yellow" id="route_2"/>
    <vehicle id="vehicle_0" depart="0.00" route="route_0"/>
    <vehicle id="vehicle_1" depart="0.00" color="red" route="route_1"/>
    <vehicle id="vehicle_2" depart="0.00" color="blue" route="route_2"/>
    <vehicle id="vehicle_3" depart="0.00" color="red" route="route_0"/>
</routes>
