<?xml version="1.0" encoding="UTF-8"?>

<!-- generated on 2024-10-26 10:24:04 by Eclipse SUMO netedit Version 1.11.0
-->

<routes xmlns:xsi="http://www.w3.org/2001/XMLSchema-instance" xsi:noNamespaceSchemaLocation="http://sumo.dlr.de/xsd/routes_file.xsd">
    <vType id="vType_0" vClass="emergency"/>
    <vType id="vType_1" vClass="taxi"/>
    <vType id="vType_2" vClass="bus"/>
    <vType id="vType_3" vClass="taxi"/>
    <route edges="main28b main27b main26b main25b main24b main23b main22b main21b main20b main19b main18b main17b rosendale1a rosendale2a" color="yellow" id="route_0"/>
    <route edges="4260000#0 4260000#1 152117986#0 152117986#1 main14a main15a main16a main17a -948026960#12 main19a main20a main21a main22a main23a 4765071#0 4765027 1296340845#3 1296340845#4 1296340846 4764988#0 4765012#1" color="yellow" id="route_1"/>
    <route edges="austwick2b austwick1b campground2b campground1b liesbeek1b" color="yellow" id="route_10"/>
    <route edges="elma4b elma3b elma2b elma1b -4351728#0 erin3b erin2b belmont10a belmont11a belmont12a campground1a campground2a campground3a campground4a campground5a campground6a campground7a campground8a sandown1a sandown2a sandown3a sandown4a sandown5a sandown6a" color="yellow" id="route_11"/>
    <route edges="park7b park6b park5b park4b park3b park2b park1b belmont12b belmont11b belmont10b erin2a erin3a erin4a erin5a lwrburg1a lwrburg2a lwrburg3a" color="yellow" id="route_12"/>
    <route edges="park7b park6b park5b park4b park3b park2b park1b liesbeek1b" color="yellow" id="route_13"/>
    <route edges="park7b park6b park5b park4b park3b park2b park1b belmont12b belmont11b belmont10b erin2a erin3a erin4a erin5a lwrburg1a lwrburg2a lwrburg3a" color="red" id="route_14"/>
    <route edges="park7b park6b park5b park4b park3b park2b park1b belmont12b belmont11b belmont10b belmont9b fir1a fir2a fir3a fir4a fir5a 222469594#0 222469594#1 erin2" color="red" id="route_15"/>
    <route edges="campground1c campground2c campground3c campground4c campground5c campground6c park1b campground1a campground2a campground3a campground4a campground5a campground6a campground7a campground8a sandown1a glebe1a 745133059 glebe1a glebe2a glebe3a ivydene1a" color="yellow" id="route_16"/>
    <route edges="park7b park6b park5b park4b park3b park2b park1b belmont12b belmont11b belmont10b belmont9b belmont8b belmont7b belmont6b belmont5b belmont4b belmont3b belmont2b belmont1b main15b main14b main13b main12b main11b main10b main9b main8b main7b main6b main5b main4b main3b main2b main1b" color="red" id="route_2"/>
    <route edges="liesbeek1 liesbeek2a liesbeek3a campground1a campground2a campground3a campground4a campground5a campground6a campground7a campground8a sandown1a glebe1a glebe2a gablesway" color="yellow" id="route_3"/>
    <route edges="-152165427#1 -152165427#0 -222469597#3 -222469597#2 -222469597#1 -222469597#0 -222469596#0 -4378992#2 -4378992#1 -4378992#0 belmont4b belmont3b belmont2b belmont1b main16a main17a -948026960#12 main19a main20a main21a 4765018#0 4765018#1 4765018#2 4765071#4 4765071#5 4765071#6 4765071#7" color="yellow" id="route_4"/>
    <route edges="-152369791 -4765896 4764748#5 4765415#0 4765415#1 4765415#2 4765415#3 4765415#4 4765415#5 4765415#6 4765415#7 4765415#9 4765415#10 belmont3b belmont2b belmont1b main15b main14b main13b main12b main11b main10b main9b main8b -152118021 -4259999" color="yellow" id="route_5"/>
    <route edges="-4765917#2 -4765917#1 -4764776 -4764775#3 1296340845#0 1296340845#1 -4765027 4765071#1 4765071#2 4765012#0 4764988#1 4764988#2 4764988#3 rosendale1b main16b main15b main14b -152117984 -152117986#0 -4260000#1 -4260000#0" color="yellow" id="route_6"/>
    <route edges="806845105 -4766813 4766929#0 4766929#1 main21a main22a main23a main24a main25a main26a main27a main28a" color="yellow" id="route_7"/>
    <route edges="main1a main2a main3a main4a main5a main6a main7a main8a main9a main10a main11a main12a main13a main14a main15a belmont1a belmont2a belmont3a belmont4a belmont5a belmont6a belmont7a belmont8a belmont9a belmont10a belmont11a belmont12a campground1a campground2a campground3a campground4a campground5a campground6a campground7a campground8a campground9a campground10a campground11a campground12a campground13a campground14a" color="yellow" id="route_8"/>
    <route edges="228993417#0 228993417#1 228993417#2 4764127#0 4764127#1 4764127#2 4764127#3 4764127#4 4764127#5 228993408#1 228993408#2 campground8b campground7b campground6b 692751648#1 705787825 -222469595#2 -222469595#1 -222469595#0 -4378997#2 -4378997#1 -152165492#2 -152165492#1 -152165492#0 4378994#0 4378994#1 222469596#0 222469596#1 222469597#1 222469597#2 222469597#3 152165427#0 152165427#1" color="yellow" id="route_9"/>
    <flow id="flow_0" begin="0.00" route="route_5" end="3600.00" number="1800"/>
    <flow id="flow_1" begin="0.00" color="blue" route="route_6" end="100.00" vehsPerHour="3600.00"/>
    <flow id="flow_2" begin="0.00" route="route_7" end="100.00" vehsPerHour="3600.00"/>
    <flow id="flow_3" type="vType_3" begin="0.00" color="cyan" route="route_8" end="100.00" vehsPerHour="1000.00"/>
    <flow id="flow_4" begin="0.00" color="red" route="route_9" end="100.00" vehsPerHour="1000.00"/>
    <flow id="flow_5" type="vType_3" begin="0.00" color="orange" route="route_11" end="3600.00" number="1800"/>
    <flow id="flow_6" begin="0.00" color="green" route="route_16" end="100.00" vehsPerHour="500.00"/>
    <flow id="flow_8" type="vType_2" begin="0.00" color="red" route="route_10" end="100.00" vehsPerHour="500.00"/>
    <vehicle id="vehicle_0" depart="0.00" route="route_0"/>
    <vehicle id="vehicle_1" depart="0.00" color="green" route="route_1"/>
    <vehicle id="vehicle_2" type="vType_0" depart="0.00" color="white" route="route_2"/>
    <vehicle id="vehicle_3" type="vType_1" depart="0.00" route="route_3"/>
    <vehicle id="vehicle_4" type="vType_2" depart="0.00" color="blue" route="route_4"/>
</routes>
