<?xml version="1.0" encoding="UTF-8"?>

<!-- generated on 2024-10-18 09:40:26 by Eclipse SUMO polyconvert Version 1.11.0
<configuration xmlns:xsi="http://www.w3.org/2001/XMLSchema-instance" xsi:noNamespaceSchemaLocation="http://sumo.dlr.de/xsd/polyconvertConfiguration.xsd">

    <input>
        <osm-files value="map.osm"/>
        <type-file value="/home/veins/src/sumo-1.11.0/data/typemap/osmPolyconvert.typ.xml"/>
    </input>

    <output>
        <output-file value="rondebosch.poly.xml"/>
    </output>

    <projection>
        <proj.scale value="1"/>
        <proj.utm value="true"/>
        <proj.plain-geo value="true"/>
    </projection>

    <processing>
        <poi-layer-offset value="5"/>
    </processing>

</configuration>
-->

<additional xmlns:xsi="http://www.w3.org/2001/XMLSchema-instance" xsi:noNamespaceSchemaLocation="http://sumo.dlr.de/xsd/additional_file.xsd">
    <poly id="1007643393" type="parking" color="184,184,179" fill="1" layer="-1.000000" geo="1" shape="18.470543,-33.962334 18.470558,-33.962105 18.470523,-33.962040 18.470541,-33.961658 18.470512,-33.961630 18.470131,-33.961617 18.470053,-33.961672 18.470048,-33.962023 18.469993,-33.962077 18.469732,-33.962559 18.469768,-33.962571 18.469745,-33.962598 18.469771,-33.962610 18.469772,-33.962644 18.469951,-33.962684 18.470136,-33.962691 18.470158,-33.962704 18.470269,-33.962709 18.470531,-33.962719 18.470566,-33.962694 18.470560,-33.962355 18.470543,-33.962334"/>
    <poly id="1024036509" type="building" color="255,230,230" fill="1" layer="-1.00" geo="1" shape="18.470148,-33.960885 18.470110,-33.961071 18.470128,-33.961073 18.470108,-33.961166 18.470149,-33.961221 18.470221,-33.961231 18.470220,-33.961240 18.470301,-33.961251 18.470298,-33.961264 18.470429,-33.961283 18.470440,-33.961278 18.470510,-33.960936 18.470148,-33.960885"/>
    <poly id="1073546352" type="building" color="255,230,230" fill="0" layer="-1.00" geo="1" shape="18.471252,-33.962076 18.471229,-33.962083 18.471243,-33.962116 18.470888,-33.962223 18.470767,-33.962219 18.470778,-33.961815"/>
    <poly id="1073546354" type="building" color="255,230,230" fill="0" layer="-1.00" geo="1" shape="18.471233,-33.962034 18.470865,-33.962145 18.470873,-33.961886"/>
    <poly id="1073557563" type="natural" color="140,196,107" fill="0" layer="-4.00" geo="1" shape="18.470912,-33.957760 18.471049,-33.957278"/>
    <poly id="1079201294" type="amenity" color="237,199,199" fill="1" layer="-1.00" geo="1" shape="18.470443,-33.962985 18.470453,-33.962850 18.470505,-33.962852 18.470503,-33.962878 18.470583,-33.962882 18.470575,-33.962992 18.470443,-33.962985"/>
    <poly id="1079201294#1" type="building" color="255,230,230" fill="1" layer="-1.00" geo="1" shape="18.470443,-33.962985 18.470453,-33.962850 18.470505,-33.962852 18.470503,-33.962878 18.470583,-33.962882 18.470575,-33.962992 18.470443,-33.962985"/>
    <poly id="1079201613" type="natural" color="140,196,107" fill="0" layer="-4.00" geo="1" shape="18.468820,-33.963375 18.469061,-33.963167"/>
    <poly id="1079201614" type="natural" color="140,196,107" fill="0" layer="-4.00" geo="1" shape="18.469133,-33.963086 18.469309,-33.962940"/>
    <poly id="1079201615" type="natural" color="140,196,107" fill="0" layer="-4.00" geo="1" shape="18.469383,-33.962881 18.469500,-33.962787 18.469714,-33.962797"/>
    <poly id="1079201616" type="natural" color="140,196,107" fill="0" layer="-4.00" geo="1" shape="18.470873,-33.963790 18.470903,-33.963632 18.470668,-33.962821 18.470543,-33.962816"/>
    <poly id="1079201617" type="natural" color="140,196,107" fill="0" layer="-4.00" geo="1" shape="18.469356,-33.962520 18.469470,-33.962359 18.469517,-33.962253 18.469684,-33.961929 18.469699,-33.961862"/>
    <poly id="1079201618" type="natural" color="140,196,107" fill="0" layer="-4.00" geo="1" shape="18.469714,-33.961786 18.469765,-33.961432 18.469720,-33.961425"/>
    <poly id="1080785897" type="leisure" color="207,245,201" fill="1" layer="-2.00" geo="1" shape="18.466019,-33.965332 18.466193,-33.965367 18.466105,-33.965671 18.465930,-33.965637 18.466019,-33.965332"/>
    <poly id="1080785897#1" type="sport" color="79,230,125" fill="1" layer="-2.00" geo="1" shape="18.466019,-33.965332 18.466193,-33.965367 18.466105,-33.965671 18.465930,-33.965637 18.466019,-33.965332"/>
    <poly id="1080785898" type="leisure" color="207,245,201" fill="1" layer="-2.00" geo="1" shape="18.465841,-33.965297 18.466019,-33.965332 18.465930,-33.965637 18.465753,-33.965601 18.465841,-33.965297"/>
    <poly id="1080785898#1" type="sport" color="79,230,125" fill="1" layer="-2.00" geo="1" shape="18.465841,-33.965297 18.466019,-33.965332 18.465930,-33.965637 18.465753,-33.965601 18.465841,-33.965297"/>
    <poly id="1080785899" type="water" color="181,209,209" fill="1" layer="-4.00" geo="1" shape="18.465257,-33.965494 18.465246,-33.965481 18.465244,-33.965464 18.465253,-33.965449 18.465270,-33.965441 18.465289,-33.965440 18.465306,-33.965447 18.465316,-33.965460 18.465318,-33.965476 18.465309,-33.965490 18.465294,-33.965499 18.465275,-33.965501 18.465257,-33.965494"/>
    <poly id="1080785900" type="landuse" color="194,194,130" fill="1" layer="-3.00" geo="1" shape="18.465376,-33.964639 18.465388,-33.964506 18.465391,-33.964464 18.465394,-33.964464 18.465394,-33.964448 18.465401,-33.964443 18.465404,-33.964437 18.465406,-33.964357 18.465398,-33.964340 18.465386,-33.964340 18.465388,-33.964305 18.465393,-33.964304 18.465398,-33.964302 18.465402,-33.964298 18.465404,-33.964293 18.465403,-33.964177 18.465390,-33.964167 18.465384,-33.964154 18.465370,-33.964149 18.465352,-33.964153 18.465323,-33.964155 18.465305,-33.964151 18.465294,-33.964145 18.465289,-33.964138 18.465289,-33.964117 18.465298,-33.964104 18.465307,-33.964095 18.465313,-33.964091 18.465322,-33.964091 18.465332,-33.964092 18.465416,-33.964150 18.465543,-33.964153 18.465555,-33.964161 18.465532,-33.964202 18.465525,-33.964224 18.465526,-33.964249 18.465533,-33.964273 18.465533,-33.964286 18.465524,-33.964310 18.465514,-33.964334 18.465509,-33.964362 18.465509,-33.964387 18.465519,-33.964426 18.465520,-33.964439 18.465514,-33.964470 18.465508,-33.964483 18.465496,-33.964515 18.465493,-33.964532 18.465493,-33.964570 18.465500,-33.964591 18.465502,-33.964601 18.465502,-33.964620 18.465499,-33.964632 18.465491,-33.964640 18.465477,-33.964644 18.465376,-33.964639"/>
    <poly id="1080785901" type="natural" color="140,196,107" fill="0" layer="-4.00" geo="1" shape="18.465738,-33.964635 18.465779,-33.964188"/>
    <poly id="1080785902" type="landuse" color="194,194,130" fill="1" layer="-3.00" geo="1" shape="18.465581,-33.964646 18.465696,-33.964653 18.465745,-33.964162 18.465626,-33.964156 18.465581,-33.964646"/>
    <poly id="1080785903" type="water" color="181,209,209" fill="1" layer="-4.00" geo="1" shape="18.465634,-33.964749 18.465641,-33.964752 18.465643,-33.964759 18.465649,-33.964759 18.465647,-33.964785 18.465655,-33.964792 18.465660,-33.964809 18.465652,-33.964822 18.465642,-33.964827 18.465641,-33.964853 18.465636,-33.964853 18.465632,-33.964859 18.465625,-33.964862 18.465617,-33.964859 18.465615,-33.964852 18.465611,-33.964852 18.465614,-33.964825 18.465606,-33.964818 18.465601,-33.964805 18.465606,-33.964793 18.465617,-33.964784 18.465619,-33.964758 18.465624,-33.964759 18.465626,-33.964751 18.465634,-33.964749"/>
    <poly id="1080785904" type="leisure" color="207,245,201" fill="1" layer="-2.00" geo="1" shape="18.467002,-33.964545 18.466690,-33.964454 18.466399,-33.964387 18.466301,-33.964318 18.465956,-33.964159 18.465418,-33.964151 18.465382,-33.965055 18.466106,-33.965222 18.466431,-33.965184 18.466871,-33.964996 18.467002,-33.964545"/>
    <poly id="1085129538" type="landuse" color="194,194,130" fill="0" layer="-3.00" geo="1" shape="18.470666,-33.960957 18.470682,-33.960931"/>
    <poly id="1085129539" type="landuse" color="194,194,130" fill="0" layer="-3.00" geo="1" shape="18.470699,-33.960897 18.470717,-33.960857 18.470731,-33.960828"/>
    <poly id="1092985840" type="leisure" color="207,245,201" fill="1" layer="-2.00" geo="1" shape="18.467702,-33.956436 18.467814,-33.956327 18.467879,-33.956193 18.467888,-33.956049 18.467841,-33.955911 18.467743,-33.955792 18.467604,-33.955705 18.467440,-33.955660 18.467266,-33.955662 18.467102,-33.955709 18.466961,-33.955801 18.466864,-33.955927 18.466824,-33.956072 18.466844,-33.956220 18.466922,-33.956355 18.467049,-33.956460 18.467211,-33.956524 18.467384,-33.956540 18.467553,-33.956510 18.467702,-33.956436"/>
    <poly id="1092985840#1" type="sport" color="79,230,125" fill="1" layer="-2.00" geo="1" shape="18.467702,-33.956436 18.467814,-33.956327 18.467879,-33.956193 18.467888,-33.956049 18.467841,-33.955911 18.467743,-33.955792 18.467604,-33.955705 18.467440,-33.955660 18.467266,-33.955662 18.467102,-33.955709 18.466961,-33.955801 18.466864,-33.955927 18.466824,-33.956072 18.466844,-33.956220 18.466922,-33.956355 18.467049,-33.956460 18.467211,-33.956524 18.467384,-33.956540 18.467553,-33.956510 18.467702,-33.956436"/>
    <poly id="1092985841" type="landuse" color="194,194,130" fill="1" layer="-3.00" geo="1" shape="18.467086,-33.956694 18.467162,-33.956716 18.467258,-33.956732 18.467396,-33.956736 18.467498,-33.956725 18.467639,-33.956691 18.467733,-33.956648 18.467815,-33.956601 18.467873,-33.956553 18.467936,-33.956475 18.467979,-33.956403 18.468000,-33.956350 18.468013,-33.956307 18.468021,-33.956259 18.468021,-33.956176 18.468013,-33.955953 18.468007,-33.955784 18.468004,-33.955740 18.467998,-33.955711 18.467986,-33.955680 18.467951,-33.955618 18.467918,-33.955577 18.467879,-33.955533 18.467842,-33.955496 18.467808,-33.955469 18.467766,-33.955440 18.467717,-33.955413 18.467665,-33.955389 18.467609,-33.955366 18.467560,-33.955353 18.467498,-33.955340 18.467450,-33.955332 18.467343,-33.955328 18.467270,-33.955329 18.467204,-33.955333 18.467149,-33.955344 18.467101,-33.955360 18.467058,-33.955380 18.467016,-33.955405 18.466963,-33.955436 18.466906,-33.955466 18.466848,-33.955505 18.466782,-33.955557 18.466745,-33.955599 18.466705,-33.955657 18.466689,-33.955693 18.466681,-33.955728 18.466675,-33.955779 18.466678,-33.955911 18.466689,-33.956166 18.466691,-33.956295 18.466696,-33.956337 18.466701,-33.956375 18.466714,-33.956418 18.466738,-33.956453 18.466766,-33.956480 18.466864,-33.956564 18.466908,-33.956599 18.466939,-33.956618 18.466972,-33.956644 18.467086,-33.956694"/>
    <poly id="1109685437" type="building" color="255,230,230" fill="1" layer="-1.00" geo="1" shape="18.472845,-33.961126 18.473146,-33.961038 18.473130,-33.961001 18.473216,-33.960976 18.473189,-33.960912 18.473342,-33.960868 18.473462,-33.961154 18.473309,-33.961198 18.473296,-33.961168 18.472910,-33.961280 18.472845,-33.961126"/>
    <poly id="1109685438" type="amenity" color="237,199,199" fill="1" layer="-1.00" geo="1" shape="18.473027,-33.961319 18.473478,-33.961190 18.473562,-33.961392 18.473524,-33.961403 18.473544,-33.961451 18.473446,-33.961479 18.473426,-33.961431 18.473111,-33.961521 18.473027,-33.961319"/>
    <poly id="1109685438#1" type="building" color="255,230,230" fill="1" layer="-1.00" geo="1" shape="18.473027,-33.961319 18.473478,-33.961190 18.473562,-33.961392 18.473524,-33.961403 18.473544,-33.961451 18.473446,-33.961479 18.473426,-33.961431 18.473111,-33.961521 18.473027,-33.961319"/>
    <poly id="1109685439" type="building" color="255,230,230" fill="1" layer="-1.00" geo="1" shape="18.472709,-33.961393 18.472760,-33.961521 18.472848,-33.961497 18.472916,-33.961667 18.472811,-33.961696 18.472786,-33.961632 18.472801,-33.961627 18.472783,-33.961581 18.472675,-33.961610 18.472600,-33.961422 18.472709,-33.961393"/>
    <poly id="1109685440" type="building" color="255,230,230" fill="1" layer="-1.00" geo="1" shape="18.472357,-33.962855 18.472581,-33.962869 18.472570,-33.962992 18.472504,-33.962987 18.472486,-33.963187 18.472553,-33.963191 18.472522,-33.963531 18.472456,-33.963527 18.472438,-33.963727 18.472501,-33.963731 18.472490,-33.963855 18.472265,-33.963841 18.472276,-33.963718 18.472290,-33.963719 18.472308,-33.963515 18.472298,-33.963515 18.472328,-33.963180 18.472338,-33.963180 18.472356,-33.962977 18.472346,-33.962976 18.472357,-33.962855"/>
    <poly id="1120959939" type="building" color="255,230,230" fill="1" layer="-1.00" geo="1" shape="18.480781,-33.965000 18.480783,-33.964994 18.480704,-33.964955 18.480682,-33.964985 18.480762,-33.965025 18.480775,-33.965007 18.480793,-33.965009 18.480790,-33.965025 18.480829,-33.965030 18.480819,-33.965089 18.481093,-33.965121 18.481102,-33.965069 18.481127,-33.965072 18.481130,-33.965053 18.481161,-33.965056 18.481190,-33.964884 18.481178,-33.964882 18.481202,-33.964738 18.481088,-33.964725 18.481090,-33.964711 18.481004,-33.964701 18.481001,-33.964721 18.480874,-33.964707 18.480871,-33.964721 18.480856,-33.964719 18.480837,-33.964827 18.480824,-33.964826 18.480810,-33.964907 18.480769,-33.964903 18.480757,-33.964973 18.480798,-33.964978 18.480794,-33.964997 18.480794,-33.965002 18.480781,-33.965000"/>
    <poly id="1120959940" type="building" color="255,230,230" fill="1" layer="-1.00" geo="1" shape="18.482076,-33.963482 18.482090,-33.963507 18.482080,-33.963534 18.482051,-33.963548 18.482030,-33.963543 18.482021,-33.963567 18.481964,-33.963552 18.481973,-33.963530 18.481848,-33.963497 18.481853,-33.963483 18.481829,-33.963477 18.481841,-33.963444 18.481865,-33.963451 18.481873,-33.963432 18.481997,-33.963463 18.482004,-33.963445 18.482056,-33.963458 18.482050,-33.963475 18.482076,-33.963482"/>
    <poly id="1120959941" type="leisure" color="207,245,201" fill="1" layer="-2.00" geo="1" shape="18.481461,-33.965538 18.481581,-33.965563 18.481610,-33.965465 18.481490,-33.965440 18.481461,-33.965538"/>
    <poly id="1120959941#1" type="sport" color="79,230,125" fill="1" layer="-2.00" geo="1" shape="18.481461,-33.965538 18.481581,-33.965563 18.481610,-33.965465 18.481490,-33.965440 18.481461,-33.965538"/>
    <poly id="1120959942" type="leisure" color="207,245,201" fill="1" layer="-2.00" geo="1" shape="18.482563,-33.965734 18.482631,-33.965919 18.482812,-33.965874 18.482744,-33.965689 18.482563,-33.965734"/>
    <poly id="1120959942#1" type="sport" color="79,230,125" fill="1" layer="-2.00" geo="1" shape="18.482563,-33.965734 18.482631,-33.965919 18.482812,-33.965874 18.482744,-33.965689 18.482563,-33.965734"/>
    <poly id="1120959943" type="building" color="255,230,230" fill="1" layer="-1.00" geo="1" shape="18.482945,-33.965719 18.482927,-33.965732 18.482970,-33.965772 18.482988,-33.965758 18.482945,-33.965719"/>
    <poly id="1120959944" type="building" color="255,230,230" fill="1" layer="-1.00" geo="1" shape="18.483047,-33.965761 18.483092,-33.965744 18.483101,-33.965760 18.483177,-33.965729 18.483072,-33.965550 18.483007,-33.965576 18.483001,-33.965566 18.482970,-33.965579 18.482982,-33.965599 18.482958,-33.965609 18.483047,-33.965761"/>
    <poly id="1120959945" type="building" color="255,230,230" fill="1" layer="-1.00" geo="1" shape="18.483249,-33.964438 18.483314,-33.964446 18.483324,-33.964393 18.483259,-33.964385 18.483249,-33.964438"/>
    <poly id="1120959951" type="building" color="255,230,230" fill="1" layer="-1.00" geo="1" shape="18.483660,-33.964093 18.483670,-33.964111 18.483757,-33.964132 18.483772,-33.964089 18.483804,-33.964097 18.483828,-33.964027 18.483797,-33.964020 18.483801,-33.964007 18.483690,-33.963979 18.483583,-33.963953 18.483585,-33.963948 18.483496,-33.963926 18.483460,-33.963917 18.483465,-33.963903 18.483419,-33.963892 18.483414,-33.963906 18.483388,-33.963900 18.483357,-33.963988 18.483385,-33.963995 18.483384,-33.963999 18.483391,-33.964001 18.483386,-33.964015 18.483380,-33.964014 18.483376,-33.964025 18.483361,-33.964021 18.483344,-33.964069 18.483360,-33.964072 18.483355,-33.964084 18.483509,-33.964122 18.483534,-33.964051 18.483518,-33.964047 18.483523,-33.964032 18.483544,-33.964037 18.483540,-33.964048 18.483665,-33.964078 18.483660,-33.964093"/>
    <poly id="1120959963" type="leisure" color="207,245,201" fill="1" layer="-2.00" geo="1" shape="18.483305,-33.964592 18.483870,-33.964706 18.483965,-33.964382 18.483400,-33.964268 18.483305,-33.964592"/>
    <poly id="1120959963#1" type="sport" color="79,230,125" fill="1" layer="-2.00" geo="1" shape="18.483305,-33.964592 18.483870,-33.964706 18.483965,-33.964382 18.483400,-33.964268 18.483305,-33.964592"/>
    <poly id="1120959964" type="leisure" color="207,245,201" fill="1" layer="-2.00" geo="1" shape="18.482943,-33.964454 18.483092,-33.964483 18.483159,-33.964238 18.483010,-33.964209 18.482943,-33.964454"/>
    <poly id="1120959964#1" type="sport" color="79,230,125" fill="1" layer="-2.00" geo="1" shape="18.482943,-33.964454 18.483092,-33.964483 18.483159,-33.964238 18.483010,-33.964209 18.482943,-33.964454"/>
    <poly id="1120959965" type="building" color="255,230,230" fill="1" layer="-1.00" geo="1" shape="18.482157,-33.963877 18.482179,-33.963882 18.482175,-33.963893 18.482640,-33.964004 18.482739,-33.963716 18.482253,-33.963601 18.482157,-33.963877"/>
    <poly id="1120959966" type="building" color="255,230,230" fill="1" layer="-1.00" geo="1" shape="18.481889,-33.964143 18.481866,-33.964206 18.481920,-33.964219 18.481912,-33.964241 18.481978,-33.964257 18.481985,-33.964236 18.482035,-33.964248 18.482057,-33.964189 18.482139,-33.964209 18.482167,-33.964131 18.482127,-33.964121 18.482116,-33.964151 18.482089,-33.964144 18.482134,-33.964018 18.482150,-33.964022 18.482164,-33.963982 18.482172,-33.963963 18.482687,-33.964089 18.482696,-33.964065 18.482698,-33.964066 18.482712,-33.964029 18.482728,-33.964033 18.482720,-33.964055 18.482796,-33.964074 18.482805,-33.964051 18.482820,-33.964055 18.482810,-33.964085 18.482822,-33.964088 18.482818,-33.964098 18.482892,-33.964116 18.482894,-33.964111 18.482901,-33.964113 18.482903,-33.964106 18.482921,-33.964110 18.482927,-33.964093 18.482920,-33.964091 18.482922,-33.964085 18.482934,-33.964088 18.482944,-33.964061 18.482931,-33.964058 18.482964,-33.963967 18.482953,-33.963964 18.482957,-33.963955 18.482875,-33.963935 18.482871,-33.963944 18.482859,-33.963941 18.482826,-33.964032 18.482811,-33.964028 18.482819,-33.964008 18.482743,-33.963989 18.482735,-33.964012 18.482717,-33.964008 18.482734,-33.963961 18.482744,-33.963963 18.482754,-33.963933 18.482772,-33.963937 18.482782,-33.963909 18.482767,-33.963905 18.482774,-33.963887 18.482761,-33.963884 18.482771,-33.963854 18.482829,-33.963868 18.482816,-33.963905 18.482890,-33.963923 18.482936,-33.963794 18.482864,-33.963777 18.482851,-33.963812 18.482789,-33.963797 18.482812,-33.963732 18.482747,-33.963716 18.482778,-33.963627 18.482561,-33.963574 18.482559,-33.963579 18.482513,-33.963568 18.482505,-33.963590 18.482298,-33.963539 18.482303,-33.963524 18.482202,-33.963499 18.482195,-33.963519 18.482171,-33.963513 18.482147,-33.963580 18.482166,-33.963585 18.482069,-33.963857 18.481955,-33.963829 18.481925,-33.963915 18.481909,-33.963960 18.481874,-33.963951 18.481813,-33.964124 18.481889,-33.964143"/>
    <poly id="1120959967" type="building" color="255,230,230" fill="1" layer="-1.00" geo="1" shape="18.481344,-33.964343 18.481437,-33.964300 18.481582,-33.964335 18.481583,-33.964343 18.481578,-33.964365 18.481554,-33.964420 18.481544,-33.964442 18.481517,-33.964483 18.481489,-33.964513 18.481459,-33.964541 18.481442,-33.964551 18.481428,-33.964555 18.481413,-33.964557 18.481401,-33.964557 18.481386,-33.964553 18.481380,-33.964547 18.481375,-33.964541 18.481374,-33.964535 18.481376,-33.964517 18.481384,-33.964455 18.481384,-33.964429 18.481382,-33.964417 18.481372,-33.964392 18.481365,-33.964386 18.481354,-33.964377 18.481348,-33.964369 18.481344,-33.964361 18.481342,-33.964352 18.481344,-33.964343"/>
    <poly id="1120959968" type="building" color="255,230,230" fill="1" layer="-1.00" geo="1" shape="18.481338,-33.964249 18.481653,-33.964325 18.481689,-33.964222 18.481375,-33.964146 18.481348,-33.964220 18.481338,-33.964249"/>
    <poly id="1120959969" type="building" color="255,230,230" fill="1" layer="-1.00" geo="1" shape="18.480721,-33.964066 18.480720,-33.964046 18.480698,-33.964040 18.480666,-33.964127 18.480676,-33.964129 18.480670,-33.964144 18.480798,-33.964177 18.480805,-33.964159 18.480685,-33.964128 18.480709,-33.964063 18.480721,-33.964066"/>
    <poly id="1120959970" type="building" color="255,230,230" fill="1" layer="-1.00" geo="1" shape="18.480887,-33.963940 18.480891,-33.963948 18.480947,-33.963962 18.480949,-33.963956 18.481033,-33.963977 18.481041,-33.963957 18.480967,-33.963938 18.481073,-33.963645 18.481067,-33.963644 18.481078,-33.963614 18.481150,-33.963631 18.481152,-33.963627 18.481185,-33.963635 18.481183,-33.963640 18.481254,-33.963658 18.481252,-33.963664 18.481321,-33.963681 18.481338,-33.963685 18.481340,-33.963679 18.481445,-33.963705 18.481447,-33.963699 18.481464,-33.963704 18.481482,-33.963708 18.481480,-33.963713 18.481580,-33.963738 18.481577,-33.963744 18.481591,-33.963748 18.481665,-33.963766 18.481667,-33.963759 18.481739,-33.963777 18.481741,-33.963772 18.481773,-33.963780 18.481771,-33.963786 18.481842,-33.963803 18.481835,-33.963824 18.481832,-33.963823 18.481738,-33.964085 18.481646,-33.964062 18.481646,-33.964060 18.481569,-33.964041 18.481660,-33.963788 18.481563,-33.963764 18.481559,-33.963773 18.481553,-33.963772 18.481523,-33.963854 18.481527,-33.963855 18.481484,-33.963974 18.481479,-33.963973 18.481447,-33.964062 18.481233,-33.964009 18.481236,-33.964001 18.481241,-33.964002 18.481255,-33.963962 18.481250,-33.963960 18.481253,-33.963951 18.481262,-33.963953 18.481273,-33.963920 18.481268,-33.963919 18.481287,-33.963866 18.481279,-33.963864 18.481285,-33.963849 18.481291,-33.963851 18.481309,-33.963801 18.481315,-33.963802 18.481345,-33.963720 18.481338,-33.963718 18.481341,-33.963709 18.481315,-33.963703 18.481242,-33.963685 18.481217,-33.963755 18.481213,-33.963755 18.481203,-33.963781 18.481138,-33.963765 18.481067,-33.963962 18.481062,-33.963961 18.481059,-33.963971 18.481053,-33.963988 18.481038,-33.963994 18.481036,-33.964002 18.481030,-33.964001 18.480984,-33.964133 18.480964,-33.964128 18.480959,-33.964142 18.480938,-33.964136 18.480940,-33.964129 18.480925,-33.964125 18.480919,-33.964139 18.481252,-33.964220 18.481254,-33.964215 18.481264,-33.964217 18.481270,-33.964218 18.481268,-33.964224 18.481311,-33.964235 18.481303,-33.964257 18.481311,-33.964259 18.481287,-33.964329 18.480828,-33.964217 18.480814,-33.964259 18.480894,-33.964278 18.480843,-33.964420 18.480841,-33.964420 18.480793,-33.964554 18.480806,-33.964557 18.480816,-33.964521 18.480831,-33.964523 18.480916,-33.964535 18.480911,-33.964558 18.481178,-33.964590 18.481177,-33.964595 18.481205,-33.964599 18.481198,-33.964638 18.481171,-33.964635 18.481169,-33.964645 18.480836,-33.964605 18.480836,-33.964600 18.480823,-33.964599 18.480782,-33.964582 18.480787,-33.964567 18.480609,-33.964526 18.480627,-33.964472 18.480618,-33.964454 18.480553,-33.964436 18.480581,-33.964362 18.480672,-33.964383 18.480657,-33.964433 18.480690,-33.964441 18.480714,-33.964431 18.480728,-33.964391 18.480738,-33.964386 18.480801,-33.964209 18.480792,-33.964207 18.480768,-33.964273 18.480597,-33.964231 18.480624,-33.964155 18.480611,-33.964152 18.480630,-33.964100 18.480607,-33.964095 18.480587,-33.964149 18.480565,-33.964143 18.480552,-33.964181 18.480302,-33.964119 18.480365,-33.963943 18.480674,-33.964019 18.480670,-33.964030 18.480697,-33.964036 18.480726,-33.963958 18.480741,-33.963961 18.480760,-33.963909 18.480816,-33.963923 18.480826,-33.963942 18.480879,-33.963955 18.480884,-33.963940 18.480887,-33.963940"/>
    <poly id="1120959971" type="leisure" color="207,245,201" fill="1" layer="-2.00" geo="1" shape="18.481007,-33.964517 18.481273,-33.964550 18.481300,-33.964401 18.481034,-33.964368 18.481007,-33.964517"/>
    <poly id="1120959971#1" type="sport" color="79,230,125" fill="1" layer="-2.00" geo="1" shape="18.481007,-33.964517 18.481273,-33.964550 18.481300,-33.964401 18.481034,-33.964368 18.481007,-33.964517"/>
    <poly id="1120959972" type="building" color="255,230,230" fill="1" layer="-1.00" geo="1" shape="18.480147,-33.964675 18.480156,-33.964705 18.480491,-33.964638 18.480489,-33.964632 18.480488,-33.964627 18.480522,-33.964620 18.480493,-33.964518 18.480380,-33.964540 18.480379,-33.964534 18.480366,-33.964537 18.480369,-33.964548 18.480209,-33.964580 18.480207,-33.964570 18.480206,-33.964554 18.480206,-33.964543 18.480209,-33.964526 18.480213,-33.964513 18.480227,-33.964489 18.480200,-33.964478 18.480186,-33.964501 18.480139,-33.964482 18.480136,-33.964481 18.480129,-33.964498 18.480122,-33.964515 18.480120,-33.964527 18.480118,-33.964545 18.480120,-33.964575 18.480124,-33.964595 18.480126,-33.964594 18.480132,-33.964617 18.480087,-33.964673 18.480127,-33.964664 18.480147,-33.964675"/>
    <poly id="1120959973" type="building" color="255,230,230" fill="1" layer="-1.00" geo="1" shape="18.480307,-33.964379 18.480357,-33.964392 18.480363,-33.964402 18.480395,-33.964390 18.480357,-33.964330 18.480326,-33.964324 18.480307,-33.964379"/>
    <poly id="1120959974" type="building" color="255,230,230" fill="1" layer="-1.00" geo="1" shape="18.480291,-33.964438 18.480326,-33.964495 18.480435,-33.964448 18.480443,-33.964459 18.480485,-33.964441 18.480478,-33.964428 18.480504,-33.964417 18.480469,-33.964360 18.480534,-33.964332 18.480531,-33.964327 18.480545,-33.964321 18.480509,-33.964263 18.480491,-33.964270 18.480488,-33.964265 18.480387,-33.964309 18.480391,-33.964315 18.480374,-33.964311 18.480334,-33.964301 18.480344,-33.964273 18.480417,-33.964291 18.480433,-33.964248 18.480362,-33.964230 18.480360,-33.964235 18.480336,-33.964229 18.480325,-33.964258 18.480246,-33.964238 18.480204,-33.964353 18.480213,-33.964356 18.480211,-33.964360 18.480245,-33.964369 18.480243,-33.964376 18.480206,-33.964392 18.480195,-33.964421 18.480214,-33.964452 18.480250,-33.964461 18.480285,-33.964445 18.480288,-33.964438 18.480291,-33.964438"/>
    <poly id="1120959975" type="leisure" color="207,245,201" fill="1" layer="-2.00" geo="1" shape="18.480457,-33.964864 18.480643,-33.964960 18.480818,-33.964727 18.480632,-33.964631 18.480457,-33.964864"/>
    <poly id="1120959975#1" type="sport" color="79,230,125" fill="1" layer="-2.00" geo="1" shape="18.480457,-33.964864 18.480643,-33.964960 18.480818,-33.964727 18.480632,-33.964631 18.480457,-33.964864"/>
    <poly id="1120960592" type="leisure" color="207,245,201" fill="1" layer="-2.00" geo="1" shape="18.478566,-33.963996 18.478537,-33.964055 18.478601,-33.964076 18.478593,-33.964093 18.478700,-33.964129 18.478691,-33.964148 18.478767,-33.964174 18.478817,-33.964073 18.478569,-33.963989 18.478566,-33.963996"/>
    <poly id="1120960593" type="leisure" color="207,245,201" fill="1" layer="-2.00" geo="1" shape="18.478972,-33.964326 18.478942,-33.964383 18.478739,-33.964310 18.478781,-33.964230 18.478812,-33.964241 18.478846,-33.964177 18.479010,-33.964235 18.478964,-33.964323 18.478972,-33.964326"/>
    <poly id="1120960594" type="leisure" color="207,245,201" fill="1" layer="-2.00" geo="1" shape="18.479109,-33.964349 18.479204,-33.964383 18.479223,-33.964347 18.479256,-33.964359 18.479309,-33.964260 18.479164,-33.964207 18.479121,-33.964288 18.479138,-33.964295 18.479109,-33.964349"/>
    <poly id="1120960595" type="building" color="255,230,230" fill="1" layer="-1.00" geo="1" shape="18.478748,-33.964286 18.478796,-33.964191 18.478686,-33.964152 18.478695,-33.964133 18.478588,-33.964096 18.478596,-33.964080 18.478528,-33.964057 18.478549,-33.964017 18.478466,-33.963988 18.478445,-33.964028 18.478323,-33.963986 18.478263,-33.964104 18.478427,-33.964162 18.478438,-33.964141 18.478513,-33.964168 18.478504,-33.964184 18.478613,-33.964222 18.478606,-33.964236 18.478748,-33.964286"/>
    <poly id="1120960596" type="building" color="255,230,230" fill="1" layer="-1.00" geo="1" shape="18.479046,-33.964389 18.478983,-33.964367 18.479002,-33.964330 18.478971,-33.964320 18.479016,-33.964232 18.478892,-33.964188 18.478899,-33.964174 18.478848,-33.964157 18.478876,-33.964102 18.478885,-33.964105 18.478892,-33.964092 18.479059,-33.964152 18.479050,-33.964168 18.479024,-33.964219 18.479055,-33.964230 18.479057,-33.964226 18.479118,-33.964248 18.479046,-33.964389"/>
    <poly id="1120960597" type="building" color="255,230,230" fill="1" layer="-1.00" geo="1" shape="18.479750,-33.964652 18.479820,-33.964678 18.479879,-33.964564 18.479874,-33.964562 18.479882,-33.964547 18.479928,-33.964564 18.479957,-33.964510 18.479952,-33.964508 18.479958,-33.964496 18.479987,-33.964506 18.480059,-33.964367 18.479964,-33.964333 18.479945,-33.964326 18.479897,-33.964418 18.479817,-33.964389 18.479760,-33.964497 18.479517,-33.964410 18.479549,-33.964348 18.479536,-33.964343 18.479545,-33.964326 18.479321,-33.964245 18.479266,-33.964351 18.479288,-33.964359 18.479260,-33.964411 18.479243,-33.964405 18.479262,-33.964367 18.479226,-33.964354 18.479207,-33.964389 18.479108,-33.964354 18.479090,-33.964347 18.479060,-33.964405 18.479263,-33.964478 18.479283,-33.964440 18.479425,-33.964491 18.479428,-33.964484 18.479449,-33.964492 18.479445,-33.964500 18.479769,-33.964616 18.479750,-33.964652"/>
    <poly id="1120960598" type="building" color="255,230,230" fill="1" layer="-1.00" geo="1" shape="18.480026,-33.964243 18.479952,-33.964214 18.479990,-33.964147 18.480064,-33.964176 18.480026,-33.964243"/>
    <poly id="1120960599" type="building" color="255,230,230" fill="1" layer="-1.00" geo="1" shape="18.480129,-33.963921 18.480095,-33.963978 18.480145,-33.963999 18.480179,-33.963941 18.480129,-33.963921"/>